10
Properties=species:S:1:pos:R:3 pbc="F F F"
C        1.94926160      -0.22492556       0.23889840
H        3.03953260      -0.29769156       0.38557940
O        1.09738260      -1.01791256       0.59653940
O        1.69467660       0.91746444      -0.39522960
H       -0.77963340      -1.03977756       0.48891040
O       -1.74598240      -0.93928256       0.30477240
O       -1.04551340       1.00892044      -0.47605760
C       -1.94245740       0.23103044      -0.25212360
H        0.69121060       1.08003144      -0.57030660
H       -2.99644240       0.46729044      -0.46502860
